power-flow-agent/results/ieee14/2026-09-18/gpt-5.4/plan_act_nogate/traces/27_case14-parameterized-025-s0.transcript.txt
==============================================================================
TRANSCRIPT  plan_act_nogate  |  openrouter:openai/gpt-5.4  |  case14  |  case14-parameterized-025-s0  run 0
==============================================================================
date: 2026-09-18   seed: 0   difficulty: parameterized   tool variant: None

[system]   (hash 7da5e2a37ec4, from methods/plan_act_nogate/method.json prompt_files)
You are a power system power-flow analysis assistant. You help the user complete power system analysis tasks from natural-language requests.

## What you can do
You complete tasks by calling tool functions:
1. Load an IEEE standard test system (14, 30, 57, 118, 300 buses)
2. Run AC power flow
3. Modify the load at a bus and re-solve
4. Disconnect or reconnect a line and re-solve
5. Query the network status
6. Run an N-1 contingency analysis (disconnect branches one at a time and rank the worst cases)
7. Generate remedial-action suggestions (what-if load shedding or voltage adjustment) to reduce violation risk

## Key rules
- Never fabricate any numerical result. Every voltage, power, loss, or loading value must come from a tool return value.
- If a tool reports an error or a non-converged power flow, say so explicitly and do not report numbers for that state.
- If the request is ambiguous, state the interpretation you are using.
- Bus and line identifiers in the request are MATPOWER 1-based ids; pass them to the tools as given, unless the request itself states a different indexing convention for that identifier (e.g. "(0-based)"), in which case convert it to the MATPOWER 1-based id before calling any tool.
- After a network modification, re-solve before reporting any value.
- Always reply in English.

## Reply format
After each analysis, reply in this structure:
1. One-sentence summary
2. Key numbers (total load, total generation, total losses, voltage range) taken from the tool outputs
3. Violations, if any
4. Suggested next step

[user]
Load case14 and disconnect the line between bus 9 and bus 10.

[tools available to the model]   (function-calling schema, --tool-variant v1; enum values and defaults as sent)
  load_case(case_name: string* in {case14, case30, case57, case118, case300})  Load IEEE test case.
  run_powerflow()  Run power flow on current case.
  modify_load(bus_id: integer*, p_mw: number*, q_mvar: number)  Modify bus load and recompute.
  disconnect_line(from_bus: integer*, to_bus: integer*)  Disconnect line/branch between two buses and recompute.
  reconnect_line(from_bus: integer*, to_bus: integer*)  Reconnect line/branch between two buses and recompute.
  get_most_loaded_branch()  Get most loaded branch.
  run_n1_contingency(top_k: integer (default 5), criteria: string in {max_violations, max_overload, min_voltage} (default max_violations), max_candidates: integer (default 0))  Run N-1 contingency analysis.
  recommend_remedial_actions(max_actions: integer (default 5), allow_load_shed: boolean (default True), allow_voltage_control: boolean (default True), include_best_comparison: boolean (default True))  Recommend remedial actions.
  apply_remedial_action(action_index: integer*, confirmed: boolean (default False))  Apply one remedial action by index.
  get_status()  Get current network status.
  generate_plot(plot_type: string* in {voltage_heatmap, flow_diagram, violation_overview, comparison})  Generate one plot.

[planner system prompt]   (hash 7f71af6e03f2; as assembled today from methods/plan_act; the planning call sends this plus the request)
You are the planner of a power-system analysis agent. You cannot call tools yourself. Given the user's request, output ONLY a JSON object of the form
{"plan": [{"tool": "<tool_name>", "args": {...}}, ...]}
listing, in execution order, every tool call needed to answer the request. Use only the tools below with exactly these argument names (* = required); where an argument lists allowed values, use one of them verbatim. Bus and line identifiers in the request are MATPOWER 1-based ids; pass them to the tools as given, unless the request itself states a different indexing convention for that identifier (e.g. "(0-based)"), in which case convert it to the MATPOWER 1-based id. Do not include explanations, markdown, or any text outside the JSON.

Available tools:
- load_case(case_name: string in {case14, case30, case57, case118, case300}*): Load IEEE test case.
- run_powerflow((none)): Run power flow on current case.
- modify_load(bus_id: integer*, p_mw: number*, q_mvar: number): Modify bus load and recompute.
- disconnect_line(from_bus: integer*, to_bus: integer*): Disconnect line/branch between two buses and recompute.
- reconnect_line(from_bus: integer*, to_bus: integer*): Reconnect line/branch between two buses and recompute.
- get_most_loaded_branch((none)): Get most loaded branch.
- run_n1_contingency(top_k: integer, criteria: string in {max_violations, max_overload, min_voltage}, max_candidates: integer): Run N-1 contingency analysis.
- recommend_remedial_actions(max_actions: integer, allow_load_shed: boolean, allow_voltage_control: boolean, include_best_comparison: boolean): Recommend remedial actions.
- apply_remedial_action(action_index: integer*, confirmed: boolean): Apply one remedial action by index.
- get_status((none)): Get current network status.
- generate_plot(plot_type: string in {voltage_heatmap, flow_diagram, violation_overview, comparison}*): Generate one plot.

[planner output]
[
 {
  "tool": "load_case",
  "args": {
   "case_name": "case14"
  }
 },
 {
  "tool": "disconnect_line",
  "args": {
   "from_bus": 9,
   "to_bus": 10
  }
 }
]

--- round 1 ---
[assistant]   (351 in / 40 out tokens, 2.1 s)
{"plan":[{"tool":"load_case","args":{"case_name":"case14"}},{"tool":"disconnect_line","args":{"from_bus":9,"to_bus":10}}]}

--- round 2 ---
[tool load_case]   (gate: not applied)
{"case_name": "case14", "n_buses": 14, "n_generators": 5, "n_lines": 20, "n_loads": 11, "total_load_mw": 254.31526042557968, "total_gen_capacity_mw": 772.4000000000001}
[tool disconnect_line]   (gate: pass)
{"case_name": "case14", "converged": true, "bus_voltages": [{"bus_id": 1, "vm_pu": 1.06, "va_deg": 0.0, "is_violation": true, "violation_type": "overvoltage"}, {"bus_id": 2, "vm_pu": 1.0449999999999997, "va_deg": -4.883687263552866, "is_violation": false, "violation_type": null}, {"bus_id": 3, "vm_pu": 1.01, "va_deg": -12.272422826282618, "is_violation": false, "violation_type": null}, {"bus_id": 4, "vm_pu": 1.018837142104894, "va_deg": -10.202065062707637, "is_violation": false, "violation_type": null}, {"bus_id": 5, "vm_pu": 1.0200500419233263, "va_deg": -8.707940346286595, "is_violation": false, "violation_type": null}, {"bus_id": 6, "vm_pu": 1.0700000000000005, "va_deg": -14.334914834891373, "is_violation": true, "violation_type": "overvoltage"}, {"bus_id": 7, "vm_pu": 1.0653373544052163, "va_deg": -12.980853536140076, "is_violation": true, "violation_type": "overvoltage"}, {"bus_id": 8, "vm_pu": 1.09, "va_deg": -12.980853536140076, "is_violation": true, "violation_type": "overvoltage"}, {"bus_id": 9, "vm_pu": 1.0633166644102892, "va_deg": -14.412613812993019, "is_violation": true, "violation_type": "overvoltage"}, {"bus_id": 10, "vm_pu": 1.02743363955686, "va_deg": -15.840654861683994, "is_violation": false, "violation_type": null}, {"bus_id": 11, "vm_pu": 1.0445597026987659, "va_deg": -15.207733687823353, "is_violation": false, "violation_type": null}, {"bus_id": 12, "vm_pu": 1.0563922255662725, "va_deg": -15.101474288218999, "is_violation": true, "violation_type": "overvoltage"}, {"bus_id": 13, "vm_pu": 1.0518030822138253, "va_deg": -15.165214401634538, "is_violation": true, "violation_type": "overvoltage"}, {"bus_id": 14, "vm_pu": 1.0403202388651873, "va_deg": -15.736730338544033, "is_violation": false, "violation_type": null}], "line_flows": [{"line_id": 0, "from_bus": 1, "to_bus": 2, "p_from_mw": 153.8930924055994, "q_from_mvar": -19.702926397087765, "loading_percent": 1.478456719469798, "is_violation": false}, {"line_id": 1, "from_bus": 1, "to_bus": 5, "p_from_mw": 74.9494151514652, "q_from_mvar": 3.654291611641927, "loading_percent": 0.7155874725977192, "is_violation": false}, {"line_id": 2, "from_bus": 2, "to_bus": 3, "p_from_mw": 70.05102226302104, "q_from_mvar": 3.883148811798006, "loading_percent": 0.6793087028630471, "is_violation": false}, {"line_id": 3, "from_bus": 2, "to_bus": 4, "p_from_mw": 55.86838683374772, "q_from_mvar": -2.163546058546831, "loading_percent": 0.5404307537383637, "is_violation": false}, {"line_id": 4, "from_bus": 2, "to_bus": 5, "p_from_mw": 41.76534497953626, "q_from_mvar": 0.7913069337550042, "loading_percent": 0.4048812946619325, "is_violation": false}, {"line_id": 5, "from_bus": 3, "to_bus": 4, "p_from_mw": -20.482656877366463, "q_from_mvar": 2.546366750936512, "loading_percent": 0.2082141217512812, "is_violation": false}, {"line_id": 6, "from_bus": 4, "to_bus": 5, "p_from_mw": -59.077753666834056, "q_from_mvar": 16.63376548400659, "loading_percent": 0.6084851120817951, "is_violation": false}, {"line_id": 7, "from_bus": 6, "to_bus": 11, "p_from_mw": 12.317555767273934, "q_from_mvar": 7.869073010995425, "loading_percent": 0.13798341084186927, "is_violation": false}, {"line_id": 8, "from_bus": 6, "to_bus": 12, "p_from_mw": 7.04009750753006, "q_from_mvar": 2.3488124587596313, "loading_percent": 0.07006119993823988, "is_violation": false}, {"line_id": 9, "from_bus": 6, "to_bus": 13, "p_from_mw": 16.023154744350563, "q_from_mvar": 6.900709721152445, "loading_percent": 0.1646932237081252, "is_violation": false}, {"line_id": 10, "from_bus": 9, "to_bus": 10, "p_from_mw": 0.0, "q_from_mvar": 0.0, "loading_percent": 0.0, "is_violation": false}, {"line_id": 11, "from_bus": 9, "to_bus": 14, "p_from_mw": 11.266964174201961, "q_from_mvar": 3.8562129955956794, "loading_percent": 0.11312616273604925, "is_violation": false}, {"line_id": 12, "from_bus": 10, "to_bus": 11, "p_from_mw": -8.517002468751725, "q_from_mvar": -5.488734924000746, "loading_percent": 0.09961468747685606, "is_violation": false}, {"line_id": 13, "from_bus": 12, "to_bus": 13, "p_from_mw": 1.4851982744586074, "q_from_mvar": 0.7842319845088584, "loading_percent": 0.01605936438347785, "is_violation": false}, {"line_id": 14, "from_bus": 13, "to_bus": 14, "p_from_mw": 3.906060044141372, "q_from_mvar": 1.5675813831627923, "loading_percent": 0.040419993859125036, "is_violation": false}, {"line_id": 100000, "from_bus": 4, "to_bus": 7, "p_from_mw": 25.728832965234037, "q_from_mvar": -11.123409148076318, "loading_percent": 0.2779004585426723, "is_violation": false}, {"line_id": 100001, "from_bus": 4, "to_bus": 9, "p_from_mw": 14.75887797468447, "q_from_mvar": -1.7042855442672877, "loading_percent": 0.1472956093838235, "is_violation": false}, {"line_id": 100002, "from_bus": 5, "to_bus": 6, "p_from_mw": 45.56257841241919, "q_from_mvar": 12.867847120898643, "loading_percent": 0.46883023231831455, "is_violation": false}, {"line_id": 100003, "from_bus": 7, "to_bus": 8, "p_from_mw": 1.6118978268965533e-14, "q_from_mvar": -14.915718200726813, "loading_percent": 0.14142357778628553, "is_violation": false}, {"line_id": 100004, "from_bus": 7, "to_bus": 9, "p_from_mw": 25.728832964356407, "q_from_mvar": 2.278321880238994, "loading_percent": 0.24490283963531728, "is_violation": false}], "total_generation_mw": 267.3235780441252, "total_load_mw": 254.31526042557968, "total_loss_mw": 13.008317624897318, "voltage_violations": [{"bus_id": 1, "vm_pu": 1.06, "va_deg": 0.0, "is_violation": true, "violation_type": "overvoltage"}, {"bus_id": 6, "vm_pu": 1.0700000000000005, "va_deg": -14.334914834891373, "is_violation": true, "violation_type": "overvoltage"}, {"bus_id": 7, "vm_pu": 1.0653373544052163, "va_deg": -12.980853536140076, "is_violation": true, "violation_type": "overvoltage"}, {"bus_id": 8, "vm_pu": 1.09, "va_deg": -12.980853536140076, "is_violation": true, "violation_type": "overvoltage"}, {"bus_id": 9, "vm_pu": 1.0633166644102892, "va_deg": -14.412613812993019, "is_violation": true, "violation_type": "overvoltage"}, {"bus_id": 12, "vm_pu": 1.0563922255662725, "va_deg": -15.101474288218999, "is_violation": true, "violation_type": "overvoltage"}, {"bus_id": 13, "vm_pu": 1.0518030822138253, "va_deg": -15.165214401634538, "is_violation": true, "violation_type": "overvoltage"}], "thermal_violations": [], "summary_text": "", "solver_backend": "pandapower", "llm_prompt": null, "llm_response": null}

--- round 3 ---
[assistant final]   (3201 in / 353 out tokens, 4.2 s)
1. **One-sentence summary**  
IEEE 14-bus case was loaded and the line between bus 9 and bus 10 was disconnected; the post-contingency AC power flow converged.

2. **Key numbers**  
- Total load: **254.31526042557968 MW**  
- Total generation: **267.3235780441252 MW**  
- Total losses: **13.008317624897318 MW**  
- Voltage range: **1.01 pu to 1.09 pu**  
- Disconnected line status: line **9–10** has **0.0 MW**, **0.0 MVAr**, **0.0% loading**

3. **Violations, if any**  
- **Voltage violations:**  
  - Bus 1: **1.06 pu** overvoltage  
  - Bus 6: **1.0700000000000005 pu** overvoltage  
  - Bus 7: **1.0653373544052163 pu** overvoltage  
  - Bus 8: **1.09 pu** overvoltage  
  - Bus 9: **1.0633166644102892 pu** overvoltage  
  - Bus 12: **1.0563922255662725 pu** overvoltage  
  - Bus 13: **1.0518030822138253 pu** overvoltage  
- **Thermal violations:** none reported

4. **Suggested next step**  
If you want, I can next check specific bus voltages/line flows in more detail, reconnect the line, or run an N-1 contingency analysis on case14.
